/*--------------------------------*- C++ -*----------------------------------*\
| =========                 |                                                 |
| \\      /  F ield         | OpenFOAM: The Open Source CFD Toolbox           |
|  \\    /   O peration     | Version:  v2206                                 |
|   \\  /    A nd           | Website:  www.openfoam.com                      |
|    \\/     M anipulation  |                                                 |
\*---------------------------------------------------------------------------*/
FoamFile
{
    version     2.0;
    format      ascii;
    class       dictionary;
    object      blockMeshDict;
}
// * * * * * * * * * * * * * * * * * * * * * * * * * * * * * * * * * * * * * //

scale   0.001;

xmin  0;
xmax  10;
ymin  0;
ymax  10;
zmin  0;
zmax  200;
//xcells 22;
//ycells 4;
//zcells 4;

deltax 0.1;	//0.05
deltay 0.1;	//0.05
deltaz 0.1;	//0.05

lx #calc "($xmax) - ($xmin)";
ly #calc "($ymax) - ($ymin)";
lz #calc "($zmax) - ($zmin)";

xcells #calc "round($lx / $deltax)";
ycells #calc "round($ly / $deltay)";
zcells #calc "round($lz / $deltaz)";

vertices
(
    ($xmin  $ymin  $zmin)
    ($xmax  $ymin  $zmin)
    ($xmax  $ymax  $zmin)
    ($xmin  $ymax  $zmin)
    ($xmin  $ymin  $zmax)
    ($xmax  $ymin  $zmax)
    ($xmax  $ymax  $zmax)
    ($xmin  $ymax  $zmax)
);

blocks
(
    hex (0 1 2 3 4 5 6 7) (30 1 100) simpleGrading (1 0.1 1)
);

edges
(
);

boundary
(
    inlet
    {
        type patch;
        faces
        (
            (0 3 2 1)
        );
    }
    outlet
    {
        type patch;
        faces
        (
            (4 5 6 7)
        );
    }
    sideWall
    {
        type wall;
        faces
        (
            (2 6 5 1)
        );
    }
    bottom
    {
        type wall;
        faces
        (
            (0 4 7 3)
        );
    }
    front
    {
        type empty;
        faces
        (
            (3 7 6 2)
        );
    }
    back
    {
        type empty;
        faces
        (
            (0 1 5 4)
        );
    }
);

mergePatchPairs
(
);


// ************************************************************************* //
