/*--------------------------------*- C++ -*----------------------------------*\
| =========                 |                                                 |
| \\      /  F ield         | OpenFOAM: The Open Source CFD Toolbox           |
|  \\    /   O peration     | Version:  2212                                  |
|   \\  /    A nd           | Website:  www.openfoam.com                      |
|    \\/     M anipulation  |                                                 |
\*---------------------------------------------------------------------------*/
FoamFile
{
    version     2.0;
    format      ascii;
    arch        "LSB;label=32;scalar=64";
    class       extendedFeatureEdgeMesh;
    location    "constant/extendedFeatureEdgeMesh";
    object      walls_mm_tr.extendedFeatureEdgeMesh;
}
// * * * * * * * * * * * * * * * * * * * * * * * * * * * * * * * * * * * * * //

// points
8((0.8245 -0.2015 0.161) (0.8245 0.2015 0) (0.8245 0.2015 0.161) (0.8245 -0.2015 0) (0.6635 -0.2015 0) (0.6635 -0.2015 0.161) (0.6635 0.2015 0) (0.6635 0.2015 0.161))
// edges

12
(
(1 2)
(2 0)
(0 3)
(3 1)
(4 3)
(5 4)
(0 5)
(7 6)
(5 7)
(6 4)
(1 6)
(7 2)
)

// concaveStart mixedStart nonFeatureStart
8 8 8
// internalStart flatStart openStart multipleStart
12 12 12 12
// normals

12
(
(1 -0 0)
(0 1 0)
(0 0 1)
(1 0 0)
(0 -1 0)
(0 0 -1)
(0 0 -1)
(0 -1 0)
(-1 0 0)
(0 0 1)
(-1 0 0)
(0 1 0)
)

// normal volume types

12
(
0
0
0
0
0
0
0
0
0
0
0
0
)

// normalDirections

12
(
2(1 -1)
2(1 -1)
2(1 -1)
2(1 -1)
2(1 -1)
2(1 -1)
2(1 -1)
2(1 -1)
2(1 -1)
2(1 -1)
2(1 -1)
2(1 -1)
)

// edgeNormals

12
(
2(0 1)
2(0 2)
2(3 4)
2(3 5)
2(4 6)
2(7 8)
2(7 9)
2(10 11)
2(10 9)
2(8 6)
2(1 5)
2(11 2)
)

// featurePointNormals

8
(
3(0 2 4)
3(0 1 5)
3(0 1 2)
3(3 4 5)
3(4 6 8)
3(7 8 9)
3(10 11 6)
3(10 11 9)
)

// featurePointEdges

8
(
3(2 6 1)
3(3 10 0)
3(0 11 1)
3(2 4 3)
3(5 9 4)
3(5 8 6)
3(9 10 7)
3(7 11 8)
)

// regionEdges
0()


// ************************************************************************* //
