/*--------------------------------*- C++ -*----------------------------------*\
| =========                 |                                                 |
| \\      /  F ield         | OpenFOAM: The Open Source CFD Toolbox           |
|  \\    /   O peration     | Version:  v2206                                 |
|   \\  /    A nd           | Website:  www.openfoam.com                      |
|    \\/     M anipulation  |                                                 |
\*---------------------------------------------------------------------------*/
FoamFile
{
    version     2.0;
    format      ascii;
    class       dictionary;
    object      blockMeshDict;
}
// * * * * * * * * * * * * * * * * * * * * * * * * * * * * * * * * * * * * * //

scale  1.0;
xmax 1;
ymax 0.1;
zmax 0.1;

vertices        
(
   ( 0.0   0.0   0.0)
   ( $xmax 0.0   0.0)
   ( $xmax 0.0   $zmax)
   ( 0.0   0.0   $zmax)
   ( 0.0   $ymax 0.0)
   ( $xmax $ymax 0.0)
   ( $xmax $ymax $zmax)
   ( 0.0   $ymax $zmax)
);

blocks          
(
    hex (0 1 5 4 3 2 6 7)   (100 1 1) simpleGrading (1 1 1)
);

edges           
(
);

boundary         
(
    XMin
    {
        type patch;
        faces
        (
            (0 4 7 3)
        );
    }
    XMax
    {
        type patch;
        faces
        (
            (1 5 6 2)
        );
    }
    ZMin
    {
        type empty;
        faces
        (
            (0 1 5 4)
        );
    }
    ZMax
    {
        type empty;
        faces
        (
            (3 2 6 7)
        );
    }
    YMin
    {
        type wall;
        faces
        (
            (0 1 2 3)
        );
    }
    YMax
    {
        type wall;
        faces
        (
            (4 5 6 7)
        );
    }
);

mergePatchPairs
(
);

// ************************************************************************* //
