/*--------------------------------*- C++ -*----------------------------------*\
| =========                 |                                                 |
| \\      /  F ield         | OpenFOAM: The Open Source CFD Toolbox           |
|  \\    /   O peration     | Version:  v2206                                 |
|   \\  /    A nd           | Web:      www.OpenFOAM.com                      |
|    \\/     M anipulation  |                                                 |
\*---------------------------------------------------------------------------*/
FoamFile
{
    version         2.0;
    format          ascii;
    class           dictionary;
    object          sampleDict;
}
// * * * * * * * * * * * * * * * * * * * * * * * * * * * * * * * * * * * * //

// The locations of the sample profiles correspond to:
// Hargreaves-Wright (2007), Fig.6
// DOI:10.1016/j.jweia.2006.08.002

samples
{
    type                    sets;
    libs                    (sampling);
    setFormat               raw;
    interpolationScheme     cell;
    fields                  (T);
    writeControl            writeTime;

    sets
    (
        x_T    // Temperature in X direction
        {
            type        face;
            axis        x;
            start       (0 0.05 0.05);
            end         (1 0.05 0.05);
        }
    );
}


// *********************************************************************** //
